Version 4
SHEET 1 880 1168
WIRE 480 -240 480 -272
WIRE 480 -128 480 -160
WIRE 480 -128 384 -128
WIRE 560 -128 480 -128
WIRE 384 -112 384 -128
WIRE 560 -96 560 -128
WIRE -736 0 -736 -80
WIRE 560 16 560 -32
WIRE 128 80 64 80
WIRE -304 96 -512 96
WIRE -736 112 -736 80
WIRE -736 112 -832 112
WIRE -192 112 -240 112
WIRE -112 112 -192 112
WIRE 128 112 -32 112
WIRE -512 128 -512 96
WIRE -304 128 -352 128
WIRE -832 144 -832 112
WIRE -736 144 -736 112
WIRE -192 144 -192 112
WIRE 128 144 64 144
WIRE 384 144 320 144
WIRE 480 144 480 -128
WIRE 528 144 480 144
WIRE 672 160 592 160
WIRE 736 160 672 160
WIRE 128 176 64 176
WIRE 464 176 320 176
WIRE 528 176 464 176
WIRE -352 240 -352 128
WIRE -192 240 -192 208
WIRE -192 240 -352 240
WIRE 64 240 64 176
WIRE 64 240 -192 240
WIRE -736 288 -736 224
WIRE -512 288 -512 208
WIRE 464 320 464 176
WIRE 528 320 464 320
WIRE 672 320 672 160
WIRE 672 320 608 320
WIRE -352 384 -352 320
WIRE -352 384 -400 384
WIRE -304 384 -352 384
WIRE -176 384 -224 384
WIRE 464 416 464 320
WIRE 528 416 464 416
WIRE 672 416 672 320
WIRE 672 416 592 416
WIRE -400 432 -400 384
WIRE -352 432 -352 384
WIRE -400 560 -400 496
WIRE -352 560 -352 496
WIRE -48 800 -48 736
WIRE 400 816 336 816
WIRE 560 816 480 816
WIRE -368 896 -480 896
WIRE -240 896 -288 896
WIRE -208 896 -240 896
WIRE 16 912 -144 912
WIRE -208 928 -288 928
WIRE -48 944 -48 880
WIRE 16 944 -48 944
WIRE -704 960 -704 896
WIRE -480 960 -480 896
WIRE -288 960 -288 928
WIRE -240 976 -240 896
WIRE 16 976 -240 976
WIRE 336 976 336 816
WIRE 336 976 208 976
WIRE 400 976 336 976
WIRE 560 992 560 816
WIRE 560 992 464 992
WIRE 624 992 560 992
WIRE 16 1008 -64 1008
WIRE 304 1008 208 1008
WIRE 400 1008 368 1008
WIRE -704 1104 -704 1040
WIRE -480 1104 -480 1040
WIRE -64 1104 -64 1008
WIRE 304 1104 304 1008
WIRE 368 1104 368 1008
FLAG -832 144 0
FLAG -736 -80 +vcc
IOPIN -736 -80 Out
FLAG -736 288 -vcc
IOPIN -736 288 Out
FLAG -272 144 +vcc
IOPIN -272 144 In
FLAG -272 80 -vcc
IOPIN -272 80 In
FLAG 560 192 +vcc
IOPIN 560 192 In
FLAG 560 128 -vcc
IOPIN 560 128 In
FLAG 64 80 -vcc
IOPIN 64 80 In
FLAG 64 144 +vcc
IOPIN 64 144 In
FLAG -512 288 0
FLAG -352 560 0
FLAG -176 384 -vcc
IOPIN -176 384 In
FLAG 384 144 +vcc
IOPIN 384 144 In
FLAG 480 -272 +vcc
IOPIN 480 -272 In
FLAG 560 16 0
FLAG -400 560 0
FLAG 384 16 0
FLAG -288 960 0
FLAG -480 1104 0
FLAG -64 1104 0
FLAG 304 1104 0
FLAG 368 1104 0
FLAG -704 1104 0
FLAG -704 896 +5v
IOPIN -704 896 Out
FLAG -176 880 +vcc
IOPIN -176 880 Out
FLAG -48 736 +5v
IOPIN -48 736 Out
FLAG -176 944 -vcc
IOPIN -176 944 Out
FLAG 432 1024 -vcc
IOPIN 432 1024 Out
FLAG 432 960 +vcc
IOPIN 432 960 Out
FLAG 736 160 OUT1
IOPIN 736 160 Out
FLAG 624 992 OUT2
IOPIN 624 992 Out
SYMBOL AutoGenerated\\IL300 224 128 R0
SYMATTR InstName U1
SYMBOL voltage -736 -16 R0
WINDOW 123 0 0 Left 0
WINDOW 39 0 0 Left 0
SYMATTR InstName V1
SYMATTR Value 15
SYMBOL voltage -736 128 R0
WINDOW 123 0 0 Left 0
WINDOW 39 0 0 Left 0
SYMATTR InstName V2
SYMATTR Value 15
SYMBOL res -16 96 R90
WINDOW 0 0 56 VBottom 2
WINDOW 3 32 56 VTop 2
SYMATTR InstName R1
SYMATTR Value 100
SYMBOL voltage -512 112 R0
WINDOW 123 0 0 Left 0
WINDOW 39 0 0 Left 0
SYMATTR InstName V3
SYMATTR Value SINE(1 1 0.5k)
SYMBOL res -368 224 R0
SYMATTR InstName R2
SYMATTR Value 33k
SYMBOL res -208 368 R90
WINDOW 0 0 56 VBottom 2
WINDOW 3 32 56 VTop 2
SYMATTR InstName R3
SYMATTR Value 10k
SYMBOL cap -368 432 R0
SYMATTR InstName C1
SYMATTR Value 22µ
SYMBOL cap -208 144 R0
SYMATTR InstName C2
SYMATTR Value 22p
SYMBOL res 624 304 R90
WINDOW 0 0 56 VBottom 2
WINDOW 3 32 56 VTop 2
SYMATTR InstName R4
SYMATTR Value 50k
SYMBOL cap 592 400 R90
WINDOW 0 0 32 VBottom 2
WINDOW 3 32 32 VTop 2
SYMATTR InstName C3
SYMATTR Value 22p
SYMBOL res 464 -256 R0
SYMATTR InstName R5
SYMATTR Value 10k
SYMBOL cap 544 -96 R0
SYMATTR InstName C4
SYMATTR Value 22µ
SYMBOL diode -384 496 R180
WINDOW 0 24 64 Left 2
WINDOW 3 24 0 Left 2
SYMATTR InstName D1
SYMATTR Value 1N914
SYMBOL diode 368 -112 R0
WINDOW 0 39 35 Left 2
WINDOW 3 -91 31 Left 2
SYMATTR InstName D2
SYMATTR Value 1N914
SYMBOL diode 368 -48 R0
WINDOW 0 42 33 Left 2
WINDOW 3 -89 26 Left 2
SYMATTR InstName D3
SYMATTR Value 1N914
SYMBOL AutoGenerated\\IL300 112 960 R0
SYMATTR InstName U3
SYMBOL res -272 880 R90
WINDOW 0 0 56 VBottom 2
WINDOW 3 32 56 VTop 2
SYMATTR InstName R6
SYMATTR Value 100k
SYMBOL res 496 800 R90
WINDOW 0 0 56 VBottom 2
WINDOW 3 32 56 VTop 2
SYMATTR InstName R7
SYMATTR Value 100k
SYMBOL voltage -480 944 R0
WINDOW 123 0 0 Left 0
WINDOW 39 0 0 Left 0
SYMATTR InstName V4
SYMATTR Value 500m
SYMBOL res -64 784 R0
SYMATTR InstName R8
SYMATTR Value 1k
SYMBOL voltage -704 944 R0
WINDOW 123 0 0 Left 0
WINDOW 39 0 0 Left 0
SYMATTR InstName V5
SYMATTR Value 15
SYMBOL AutoGenerated\\TL072 -176 912 R0
SYMATTR InstName U5
SYMBOL AutoGenerated\\TL072 432 992 R0
SYMATTR InstName U6
SYMBOL AutoGenerated\\TL072 -272 112 M180
SYMATTR InstName U2
SYMBOL AutoGenerated\\TL072 560 160 M180
SYMATTR InstName U4
TEXT -856 584 Left 2 !.tran 40m
